107barrasSTB/107barra_CasoBase.PWF
TITU
Sistema-Teste de 107 Barras                                         
DBAR
(No )OETGB(   nome   )GL( V)( A)( Pg)( Qg)( Qn)( Qm)(  Bc)( Pl)( Ql)( Sh)(A)(Vf)
   12  1 ALCBARRET-4GR D1000-24. 300.-203.-540. 420.                       11000                                   
   16  1 AFURNAS---5GR D1000-26. 800.-134.-720. 480.                       11000                                   
   18  2 AITUMBIAR-6GR D1020-24.996.1-399.-546. 600.                       11000                                   
   20  1 AMARIMBON-5GR D1010-22. 900.-321.-640. 640.                       11000                                   
   21  1 AMANSO----3GR D1000-63. 140.-21.6 -80.  84.                       31000                                   
   22  1 AM.MOR.A--3GR D1000-20. 150.-20.6-120. 126.                       11000                                   
   35  1 ACORUMBA--2GR D1000-27. 200.-49.4-180. 180.                       11000                                   
   48  1 AIBIUNA---4CS D1000-42.   0.-461.-10801200.                       11000                                   
   86    DIBIUNA---345 C1033-42.                            66.  1.2       11000                                   
  100    BMARIMBON-500 A1056-28.                                           11000                                   
  101    BARARAQUA-500 A1069-36.                                    -200.  11000                                   
  102    BPOCOS----500 A1059-43.                                    -100.  11000                                   
  103    BCAMPINAS-500 A1072-43.                                           11000                                   
  104    BC.PAULIS-500 A1061-51.                           910. 235.       11000                                   
  106    BADRIANO--500 A1050-52.                                    -100.  11000                                   
  120    DP.CALDAS-345 C1041-41.                           180.  90.       11000                                   
  122    BIBIUNA---500 A1067-41.                           200.  38.       11000                                   
  123    DCAMPINAS-345 C1035-46.                           450. 175.       11000                                   
  126    DGUARULHOS345 C1037-43.                           290.  95.       11000                                   
  131    DM.MORAES-345 C1027-27.                                           11000                                   
  134    DLBARRETO-345 C1027-26.                                           11000                                   
  136    DFURNAS---345 C1028-33.                            54.  23.       11000                                   
  138    DITUTINGA-345 C1036-44.                            72.  34.       11000                                   
  140    DADRIANO--345 C1023-53.                           700. 250.       11000                                   
  210    BITUMBIARA500 A1048-27.                                           11000                                   
  213    DMARIMBON-345 C1050-29.                            93.  39.       11000                                   
  216    DPCOLOMBIA345 C1049-28.                            53.  25.       11000                                   
  217    DITUMBIARA345 C1050-32.                           364.  58.       11000                                   
  218    DBANDEIRA-345 C1025-40.                           600. 200.       11000                                   
  219    DB.SUL----345 C1028-39.                                           11000                                   
  220    DCORUMBA--345 C1052-32.                                           11000                                   
  225    EITUMBIARA230 C1000-34.                                           11000                                   
  228    EB.SUL----230 C1016-40.                            86.  34.       11000                                   
  231    ER.VERDE-230  C1004-49.                           89.7 31.9       31000                                   
  233    BSAMAMBAI-500 A1039-36.                                           11000                                   
  234    DSAMAMBAI-345 C1027-39.                          1000. 350.       11000                                   
  300  1 AEMBORCAC-3GR D1020-19. 700.-183.-440. 392.                       11000                                   
  301  1 AJAGUARA--4GR D1010-19. 300.-128.-140. 140.                       11000                                   
  302  1 AN.PONTE--3GR D1020-18. 400.-125.-150. 150.                       11000                                   
  303  1 AS.SIMAO--4GR D1020-24. 200.-279.-600. 600.                       11000                                   
  305  1 AV.GRANDE-4GR D1000-22. 300.-60.3-120. 120.                       11000                                   
  320    BEMBORCAC-500 A1049-24.                                           11000                                   
  325    BJAGUARA--500 A1046-23.                                           11000                                   
  326    DJAGUARA--345 C1033-26.                           274. 104.       11000                                   
  360    BNPONTE---500 A1046-22.                                           11000                                   
  370    BSSIMAO---500 A1049-25.                                           11000                                   
  396    DVGRANDE--345 C1041-26.                                           11000                                   
  500  1 AA.VERMEL-4GR D1020-21. 800.-118.-540. 540.                       11000                                   
  535    BAVERMELHA500 A1035-26.                                           11000                                   
  536    CAVERMELH-440 B1023-29.                           700. 150.       11000                                   
  800  1 AGBMUNHOZ-2GR D1020-6.91100.138.4-800. 800.                       21000                                   
  808  1 ASCAXIAS--4GR D10203.721150.114.4-600. 600.                       21000                                   
  810  1 ASSEGREDO-4GR D1020-3.81200.-72.2-400. 532.                       21000                                   
  814    EBATEIAS--230 C1000-37.                          735.4 191.       21000                                   
  824    BGBMUNHOZ-500 A1038-17.                                           21000                                   
  834    ES.MATEUS-230 C 991-29.                           13.4  4.2       21000                                   
  839    ECASCAVEL-230 C 999-6.2                                           21000                                   
  840    FCASCAVEL-138 D 986-9.2                           159.  36.       21000                                   
  848    FFCHOPIM--138 D 999-5.3                            94.  18.       21000                                   
  856    BSEGREDO--500 A1035-11.                                           21000                                   
  895    BBATEIAS--500 A1044-35.                                           21000                                   
  896    BCASCAVELO500 A1028-4.1                                           21000                                   
  897    BSCAXIAS--500 A1039-2.8                                           21000                                   
  898    EFCHOPIM--230 C1012-1.9                                           21000                                   
  904  1 AITA------4GR D1020-15. 700.-236.-475. 475.                       21000                                   
  915  1 AMACHADIN-2GR D1020-13. 700.-109.-516. 465.                       21000                                   
  919  1 ASOSOR1A4-4GR D10005.98 700.89.06-148. 220.                       21000                                   
  925  1 ASSANTIAG-3GR D1020.108 950.73.05-440. 420.                       21000                                   
  933    BAREIA----500 A1038-18.                                           21000                                   
  934    EAREIA----230 C1000-18.                           237.  59.       21000                                   
  938    BBLUMENAU-500 A1043-37.                                           21000                                   
  939    EBLUMENAU-230 C1000-40.                          1149.53.06       21000                                   
  955    BCNOVOS---500 A1058-23.                                           21000                                   
  959    BCURITIBA-500 A1033-35.                                     100.  21000                                   
  960    ECURITIBA-230 C1000-37.                          844.7469.1       21000                                   
  964    BCAXIAS---500 A1037-31.                                           21000                                   
  965    ECAXIAS---230 C1000-33.                          755.656.24       21000                                   
  976    BGRAVATAI-500 A1012-33.                                           21000                                   
  995    BITA------500 A1050-19.                                           21000                                   
 1015    EJOINVILLE230 C 998-39.                            70.   2.       21000                                   
 1030    BMACHADIN-500 A1052-21.                                           21000                                   
 1047    ESOSORIO--230 C1017-.92                                           21000                                   
 1060    BSSANTIAG-500 A1043-7.9                                           21000                                   
 1210    EGRAVATAI-230 C1000-36.                          1228. 425.       21000                                   
 1503    BITAJUBA--500 A1061-49.                                           11000                                   
 1504    FITAJUBA--138 D1028-53.                           145.  63.       11000                                   
 2458    ECASCAVEL-230 C1000-6.4                           403. 126.       21000                                   
 4501    EB.PEIXE--230 C1022-61.                           31.4  7.1 -45.  31000                                   
 4521    EITIQUIRA-230 C1032-67.                                           31000                                   
 4522    ERONDONOP-230 C1030-69.                                     -20.  31000                                   
 4523  1 AITIQUIR--2GR D1010-61.  50.-8.21 -42.  30.                       31000                                   
 4530    ACOXIPO-CE-12 D1020-73.                                           31000                                   
 4532    ECOXIPO-230   C1040-73.                                           31000                                   
 4533    FCOXIPO-138   D1014-74.                           75.4 16.1       31000                                   
 4542    ENOBRES-230   C1025-72.                                           31000                                   
 4552    EN.MUTUM-230  C1006-80.                           12.6  1.2 -20.  31000                                   
 4562    ESORRISO-230  C1011-88.                           23.8  7.4       31000                                   
 4572    ELUCAS-RV230  C1008-85.                            18.  6.4       31000                                   
 4582    ESINOP-230    C1017-91.                           65.5 16.7  30.  31000                                   
 4592    EMANSO-230    C1018-68.                                           31000                                   
 4596  1 ACBA--GAS-2GR D1000-69. 230.-27.3-160. 160.                       31000                                   
 4623    FRONDONOP-138 D1015-72.                          128.240.76       31000                                   
 4703    FCUIABA-138   D1002-75.                          182.129.75       31000                                   
 4804  1 AGUAPORE--2GR D1000-75.  50.-16.5 -86.  59.                       31000                                   
 4805    FGUAPORE--138 D1024-79.                                           31000                                   
 4807    FJAURU-138    D1024-80.                          128.9 36.3       31000                                   
 4862    EJAURU-230    C1046-78.                                     -30.  31000                                   
99999
DLIN
(De )A O A(Pa )NcEP ( R% )( X% )(Mvar)(Tap)(Tmn)(Tmx)(Phs)( Bc )(Cn)(Ce)Ns
   86        48 1         .71475         1.                                                     
   86       122 1          1.913         1.                                                     
   86       122 2          1.913         1.                                                     
  100        20 1          1.264         1.                                                     
  100       101 1     .172  2.72 231.4                                                          
  100       101 2     .171   2.7 230.2                                                          
  100       210 1     .209 2.935 254.6                                                          
  100       213 1          2.357         1.                                                     
  100       535 1     .153   2.4 203.8                                                          
  101       102 1     .156  2.46 208.5                                                          
  101       103 1     .152  2.39 202.6                                                          
  102       120 1          2.403         1.                                                     
  102      1503 1      .11  1.91161.85                                                          
  103       123 1          2.419         1.                                                     
  104       103 1     .196   3.1 264.9                                                          
  104      1503 1      .05   .82 69.36                                                          
  106       104 1     .152  2.39 202.7                                                          
  106       104 2     .152  2.39 203.1                                                          
  106       140 1          2.923         1.                                                     
  106       140 2          2.668         1.                                                     
  122       103 1     .105 1.619136.35                                                          
  123       120 1     .359 3.945 66.68                                                          
  126        86 1     .109 1.826 51.18                                                          
  126        86 2     .109 1.824 51.18                                                          
  126       120 1       .6  5.95  92.8                                                          
  126       120 2     .606  6.02  93.8                                                          
  131        22 1         8.8333         1.                                                     
  134        12 1          1.335         1.                                                     
  134       131 1     .092  1.01  16.9                                                          
  134       396 1      .32 3.509 59.24                                                          
  136        16 1          1.536         1.                                                     
  136       120 1     .436   4.3  66.6                                                          
  136       120 2     .436   4.3  66.6                                                          
  136       131 1     .348  3.42  52.8                                                          
  136       134 1     .375  4.13  69.9                                                          
  136       138 1     .649  6.46 100.8                                                          
  136       138 2     .558  6.19 105.7                                                          
  140       138 1     .652   6.5 101.4                                                          
  140       138 2     .558  6.19 105.7                                                          
  210        18 1         .66667         1.                                                     
  210       217 1           1.72         1.                                                     
  210       217 2           1.72         1.                                                     
  210       370 1     .147  2.32 196.6                                                          
  213       216 1 T   .219  2.42  40.7                                                          
  216       396 1     .129 1.414 23.77                                                          
  217       216 1     .565 6.248106.73                                                          
  217       218 1     .507  5.61  95.6                                                          
  217       218 2     .507  5.61  95.6                                                          
  218       234 1      .43 4.799  82.2                                                          
  218       234 2      .43 4.799  82.2                                                          
  219       234 1     .035  .433  7.34                                                          
  219       234 2     .035  .433  7.34                                                          
  220        35 1         4.4965         1.                                                     
  220       217 1     .226 2.39643.235                                                          
  220       219 1     .726 7.704138.01                                                          
  225       217 1          2.721      0.955
  225       217 2          2.938      0.955
  225       231 1      4.1 19.76 36.08                                                          
  225       231 2     1.27 13.62 49.47                                                          
  228       219 1          3.595         1.                                                     
  231      4501 1     4.51 21.69 40.25                                                          
  231      4501 2     1.49 16.09  55.4                                                          
  233       210 1      .28  3.99355.36                                                          
  233       320 1      .27  3.87344.03                                                          
  234       233 1          1.113         1.                                                     
  234       233 2             1.         1.                                                     
  320       210 1     .125 1.937149.96                                                          
  320       300 1         1.3567         1.                                                     
  320       360 1     .082 1.256 98.99                                                          
  325       301 1         2.6325         1.                                                     
  325       326 1           2.16         1.                                                     
  325       326 2           2.16         1.                                                     
  325       360 1       .1 1.519119.67                                                          
  325       370 1      .28  4.84 419.5                                                          
  326       134 1      .07   .7612.287                                                          
  326       396 1      .24  2.74 45.47                                                          
  360       302 1         1.9367         1.                                                     
  370       303 1         1.0575         1.                                                     
  370       535 1    .09311.3758 112.3                                                          
  396       305 1            2.2         1.                                                     
  535       500 1          1.025         1.                                                     
  536       535 1          1.533         1.                                                     
  536       535 2           1.42         1.                                                     
  814       895 1     .032 1.146      0.989
  814       895 2      .031.1651      0.989
  824       800 1           1.68         1.                                                     
  824       933 1      .01  .12415.204                                                          
  824       933 2      .01  .12615.428                                                          
  834       934 1    2.44412.65221.706                                                          
  839       840 1           6.64      1.
  839       840 2           6.29      1.
  839       898 1     1.13  6.9912.617                                                          
  839      1047 1     1.22  7.69 13.81                                                          
  839      2458 1      .22  1.091.8601                                                          
  839      2458 2      .17  1.032.0537                                                          
  856       810 1           1.05         1.                                                     
  856       933 1     .052  .65480.493                                                          
  856      1060 1     .056  .69785.746                                                          
  895       122 1     .308 3.958444.84                                                          
  895       122 2     .308 3.958444.84                                                          
  896       897 1      .05   .73 78.06                                                          
  897       808 1           1.02         1.                                                     
  898       848 1           6.36      1.
  898      1047 1      .15   .891.6317                                                          
  933       895 1       .2  2.55312.72                                                          
  933       955 1     .162 2.048250.17                                                          
  933       959 1       .2  2.69 336.4                                                          
  934       933 1 T   .031 1.207      0.999
  934      1047 1    3.04515.73827.123                                                          
  934      1047 2    3.04115.71827.089                                                          
  938       955 1    .25562.9224 360.4                                                          
  938       959 1     .127 1.603195.89                                                          
  939       938 1 T   .031  1.15      0.982
  939       938 2 T   .032 1.163      0.982
  939       938 3          1.277      0.982
  939      1015 1 T  1.271 6.56211.305                                                          
  939      1015 2 T  1.283 6.56411.522                                                          
  955       964 1    .18772.3467287.24                                                          
  959       895 1      .05   .44 47.58                                                          
  960       834 1     2.2111.47519.687                                                          
  960       959 1 T   .032 1.163      1.018
  960       959 2 T   .031 1.166      1.018
  960      1015 1    1.892 9.77616.845                                                          
  960      1015 2    1.895 9.70417.029                                                          
  964       976 1    .0733 .9164112.17                                                          
  965       964 1 T    .02 1.211      0.984
  965       964 2 T    .02 1.233      0.984
  976       995 1     .282 3.852 493.7                                                          
  995       904 1 T       1.1538         1.                                                     
  995       964 1    .16433.0339354.88                                                          
  995      1030 1     .073   .92112.26                                                          
  995      1060 1     .172  2.17265.16                                                          
 1030       915 1 T       2.0655         1.                                                     
 1030       955 1     .047   .5971.818                                                          
 1047       919 1 T       1.7022         1.                                                     
 1060       897 1     .076 1.171124.58                                                          
 1060       925 1 T        1.515         1.                                                     
 1210       976 1 T    .03 1.219      1.025
 1210       976 2 T   .039 1.138      1.025
 1210       976 3 T   .036 1.217      1.025
 1503      1504 1            5.2      1.
 2458       896 1           1.27      1.027
 4501      4522 1     3.76 20.68 35.66                                                          
 4501      4522 2     1.64 12.46  61.5                                                          
 4521      4523 1          20.71         1.                                                     
 4522      4521 1     1.53   7.6 14.25                                                          
 4522      4532 1     3.25 17.92 32.75                                                          
 4522      4532 2     3.25 17.92 32.75                                                          
 4522      4623 1           7.95         1.                                                     
 4522      4623 2           7.95         1.                                                     
 4532      4530 1           14.3         1.                                                     
 4532      4533 1            8.6         1.                                                     
 4532      4533 2            8.6         1.                                                     
 4532      4533 3            8.6         1.                                                     
 4532      4542 1     1.62  9.68 19.15                                                          
 4533      4596 1         3.7635         1.                                                     
 4542      4552 1     1.83 10.93  18.6                                                          
 4552      4572 1      1.4  8.38   17.                                                          
 4562      4572 1      .94  5.5910.644                                                          
 4562      4582 1     1.24  7.38 13.28                                                          
 4592        21 1            6.4         1.                                                     
 4592      4542 1       1.  6.17  12.6                                                          
 4623      4533 1    17.06  45.5 11.39                                                          
 4703      4533 1       .9  2.31   .58                                                          
 4703      4533 2       .9  2.31   .58                                                          
 4805      4804 1         13.333         1.                                                     
 4805      4807 1    3.089 8.134 2.085                                                          
 4805      4807 2    3.089 8.134 2.085                                                          
 4862      4532 1     2.57 23.68 97.42                                                          
 4862      4532 2     2.57 23.68 97.42                                                          
 4862      4807 1           4.05         1.                                                     
99999
DGLT
(G (Vmn) (Vmx) (Vmne (Vmxe
 A    .5   1.2    .5   1.2
 B    .5   1.2    .5   1.2
 C    .5   1.2    .5   1.2
 D    .5   1.2    .5   1.2
99999
DGER
(No ) O (Pmn ) (Pmx ) ( Fp) (FpR) (FPn) (Fa) (Fr) (Ag) ( Xq) (Sno)
   12       0.  1104.  100.  100.                                 
   16       0.  1312.  100.  100.                                 
   18       0.  2280.  100.  100.                                 
   20       0.  1488.  100.  100.                                 
   21       0.   216.  100.  100.                                 
   22       0.   324.  100.  100.                                 
   35       0.   381.  100.  100.                                 
   48       0.     0.  100.  100.                                 
  300       0.  1192.  100.  100.                                 
  301       0.   400.  100.  100.                                 
  302       0.   510.  100.  100.                                 
  303       0.  1680.  100.  100.                                 
  305       0.   380.  100.  100.                                 
  500       0. 1396.2  100.  100.                                 
  800       0.  1674.  100.  100.                                 
  808       0.  1240.  100.  100.                                 
  810       0.  1260.  100.  100.                                 
  904       0.  1450.  100.  100.                                 
  915       0.  1140.  100.  100.                                 
  919       0.   728.  100.  100.                                 
  925       0.  1420.  100.  100.                                 
 4523       0.   60.8  100.  100.                                 
 4596       0.   320.  100.  100.                                 
 4804       0.  124.2  100.  100.                                 
99999
EXLF newt qlim ctap
ULOG
2
system_107_basecase.his
ARQV INIC IMPR
SIM
ARQV GRAV IMPR SUBS
01
ULOG
4
system_107_basecase.rel
RELA FILE RBAR RLIN
DOSC
TASKKILL /F  /im ANAREDE.exe
EXIT
99999
FIM